Version 4
SHEET 1 1528 680
WIRE 1040 96 1040 48
WIRE 912 240 592 240
WIRE 1424 240 1280 240
WIRE 288 336 288 256
WIRE 592 336 592 240
WIRE 1424 336 1424 240
WIRE 288 448 288 416
WIRE 592 448 592 416
WIRE 1040 448 1040 384
WIRE 1424 464 1424 400
WIRE 1424 608 1424 544
FLAG 288 448 0
FLAG 288 256 vcc
FLAG 1040 48 vcc
FLAG 592 448 0
FLAG 1424 608 0
FLAG 1040 448 0
SYMBOL voltage 288 320 R0
WINDOW 123 0 0 Left 0
WINDOW 39 0 0 Left 0
SYMATTR InstName V1
SYMATTR Value 3.3
SYMBOL voltage 592 320 R0
WINDOW 123 0 0 Left 0
WINDOW 39 0 0 Left 0
SYMATTR InstName V2
SYMATTR Value SINE(1.25 {Vin} {Freq})
SYMBOL cap 1408 336 R0
SYMATTR InstName C1
SYMATTR Value 1.5µ
SYMBOL res 1408 448 R0
SYMATTR InstName R1
SYMATTR Value 500
SYMBOL DAC\\AD5683R 1072 240 R0
SYMATTR InstName U2
SYMATTR SpiceLine Gain=1
TEXT 1064 544 Left 2 !.tran 0.1s
TEXT 928 584 Left 2 !.step param Vin 0 1.25 0.25
TEXT 928 624 Left 2 !.step param Freq list 1 10 100 1k 10k
